
OS:Version,
  {afddd3c5-4327-40f9-ae76-271ff9ec8195}, !- Handle
  2.7.1;                                  !- Version Identifier

OS:ThermalZone,
  {32346b90-1a5f-4203-98e0-77ef8210f926}, !- Handle
  VAV-02-1,                               !- Name
  ,                                       !- Multiplier
  ,                                       !- Ceiling Height {m}
  ,                                       !- Volume {m3}
  ,                                       !- Floor Area {m2}
  ,                                       !- Zone Inside Convection Algorithm
  ,                                       !- Zone Outside Convection Algorithm
  ,                                       !- Zone Conditioning Equipment List Name
  {eb8d3488-7bbc-411d-85b1-e4119bcf7dd1}, !- Zone Air Inlet Port List
  {cfd439b5-e650-47ed-a283-413a7e13c1f2}, !- Zone Air Exhaust Port List
  {49591699-f8d2-4aac-b72e-d8bb9ce75d35}, !- Zone Air Node Name
  {d4782406-1b13-482e-aa46-a01b88d19303}, !- Zone Return Air Port List
  ,                                       !- Primary Daylighting Control Name
  ,                                       !- Fraction of Zone Controlled by Primary Daylighting Control
  ,                                       !- Secondary Daylighting Control Name
  ,                                       !- Fraction of Zone Controlled by Secondary Daylighting Control
  ,                                       !- Illuminance Map Name
  ,                                       !- Group Rendering Name
  ,                                       !- Thermostat Name
  No;                                     !- Use Ideal Air Loads

OS:Node,
  {d6e94838-53fa-4aa6-bf1a-c282b87e1ae3}, !- Handle
  {f4a850de-16c2-4e83-852a-d7adfb4576f9}, !- Name
  {49591699-f8d2-4aac-b72e-d8bb9ce75d35}, !- Inlet Port
  ;                                       !- Outlet Port

OS:Connection,
  {49591699-f8d2-4aac-b72e-d8bb9ce75d35}, !- Handle
  {f7cd0e7d-4f6d-47d0-a95f-cdc6d21ffc62}, !- Name
  {32346b90-1a5f-4203-98e0-77ef8210f926}, !- Source Object
  11,                                     !- Outlet Port
  {d6e94838-53fa-4aa6-bf1a-c282b87e1ae3}, !- Target Object
  2;                                      !- Inlet Port

OS:PortList,
  {eb8d3488-7bbc-411d-85b1-e4119bcf7dd1}, !- Handle
  {c138cf9b-d2b8-45b7-a128-226a2b1d23d7}, !- Name
  {32346b90-1a5f-4203-98e0-77ef8210f926}; !- HVAC Component

OS:PortList,
  {cfd439b5-e650-47ed-a283-413a7e13c1f2}, !- Handle
  {727fdbca-e1ba-4e2e-aa78-917cf2273686}, !- Name
  {32346b90-1a5f-4203-98e0-77ef8210f926}; !- HVAC Component

OS:PortList,
  {d4782406-1b13-482e-aa46-a01b88d19303}, !- Handle
  {23e4772f-9563-405b-ad38-83de688108df}, !- Name
  {32346b90-1a5f-4203-98e0-77ef8210f926}; !- HVAC Component

OS:Sizing:Zone,
  {9298cf08-7552-4fdb-a37f-a4b34c0b3b84}, !- Handle
  {32346b90-1a5f-4203-98e0-77ef8210f926}, !- Zone or ZoneList Name
  SupplyAirTemperature,                   !- Zone Cooling Design Supply Air Temperature Input Method
  14,                                     !- Zone Cooling Design Supply Air Temperature {C}
  11.11,                                  !- Zone Cooling Design Supply Air Temperature Difference {deltaC}
  SupplyAirTemperature,                   !- Zone Heating Design Supply Air Temperature Input Method
  40,                                     !- Zone Heating Design Supply Air Temperature {C}
  11.11,                                  !- Zone Heating Design Supply Air Temperature Difference {deltaC}
  0.0085,                                 !- Zone Cooling Design Supply Air Humidity Ratio {kg-H2O/kg-air}
  0.008,                                  !- Zone Heating Design Supply Air Humidity Ratio {kg-H2O/kg-air}
  ,                                       !- Zone Heating Sizing Factor
  ,                                       !- Zone Cooling Sizing Factor
  DesignDay,                              !- Cooling Design Air Flow Method
  ,                                       !- Cooling Design Air Flow Rate {m3/s}
  ,                                       !- Cooling Minimum Air Flow per Zone Floor Area {m3/s-m2}
  ,                                       !- Cooling Minimum Air Flow {m3/s}
  ,                                       !- Cooling Minimum Air Flow Fraction
  DesignDay,                              !- Heating Design Air Flow Method
  ,                                       !- Heating Design Air Flow Rate {m3/s}
  ,                                       !- Heating Maximum Air Flow per Zone Floor Area {m3/s-m2}
  ,                                       !- Heating Maximum Air Flow {m3/s}
  ,                                       !- Heating Maximum Air Flow Fraction
  ,                                       !- Design Zone Air Distribution Effectiveness in Cooling Mode
  ,                                       !- Design Zone Air Distribution Effectiveness in Heating Mode
  No,                                     !- Account for Dedicated Outdoor Air System
  NeutralSupplyAir,                       !- Dedicated Outdoor Air System Control Strategy
  autosize,                               !- Dedicated Outdoor Air Low Setpoint Temperature for Design {C}
  autosize;                               !- Dedicated Outdoor Air High Setpoint Temperature for Design {C}

OS:ZoneHVAC:EquipmentList,
  {a6a12657-bcdd-4fbb-bf42-742cc205ef19}, !- Handle
  {fb14e2cb-1fd3-4899-88b6-81ac98469f74}, !- Name
  {32346b90-1a5f-4203-98e0-77ef8210f926}; !- Thermal Zone

OS:ThermalZone,
  {0b1a01d8-0342-402e-aa7a-24f27b712148}, !- Handle
  VAV-03-1,                               !- Name
  ,                                       !- Multiplier
  ,                                       !- Ceiling Height {m}
  ,                                       !- Volume {m3}
  ,                                       !- Floor Area {m2}
  ,                                       !- Zone Inside Convection Algorithm
  ,                                       !- Zone Outside Convection Algorithm
  ,                                       !- Zone Conditioning Equipment List Name
  {5c3019f7-af46-444b-bfb5-88425039632f}, !- Zone Air Inlet Port List
  {1ce88e0a-fe89-48aa-9330-0faa3dfc6579}, !- Zone Air Exhaust Port List
  {d4012f74-d1f1-4b06-b5cd-0331c046732f}, !- Zone Air Node Name
  {072ab820-bed5-4c9f-b93d-178d162e7107}, !- Zone Return Air Port List
  ,                                       !- Primary Daylighting Control Name
  ,                                       !- Fraction of Zone Controlled by Primary Daylighting Control
  ,                                       !- Secondary Daylighting Control Name
  ,                                       !- Fraction of Zone Controlled by Secondary Daylighting Control
  ,                                       !- Illuminance Map Name
  ,                                       !- Group Rendering Name
  ,                                       !- Thermostat Name
  No;                                     !- Use Ideal Air Loads

OS:Node,
  {1053abe6-9ca8-4452-8eb3-cd55045f6738}, !- Handle
  {31e48af6-7262-4fcd-8b71-cfb2f99ae08c}, !- Name
  {d4012f74-d1f1-4b06-b5cd-0331c046732f}, !- Inlet Port
  ;                                       !- Outlet Port

OS:Connection,
  {d4012f74-d1f1-4b06-b5cd-0331c046732f}, !- Handle
  {8009a858-caf9-4671-bb49-073e9f6e2333}, !- Name
  {0b1a01d8-0342-402e-aa7a-24f27b712148}, !- Source Object
  11,                                     !- Outlet Port
  {1053abe6-9ca8-4452-8eb3-cd55045f6738}, !- Target Object
  2;                                      !- Inlet Port

OS:PortList,
  {5c3019f7-af46-444b-bfb5-88425039632f}, !- Handle
  {00eaa774-65e7-472c-bd5c-06e8f7081209}, !- Name
  {0b1a01d8-0342-402e-aa7a-24f27b712148}; !- HVAC Component

OS:PortList,
  {1ce88e0a-fe89-48aa-9330-0faa3dfc6579}, !- Handle
  {063f571f-858f-499d-90d9-30fadc3ed0aa}, !- Name
  {0b1a01d8-0342-402e-aa7a-24f27b712148}; !- HVAC Component

OS:PortList,
  {072ab820-bed5-4c9f-b93d-178d162e7107}, !- Handle
  {ede8dd2e-8e69-46a1-8d7c-56d9fa2e061b}, !- Name
  {0b1a01d8-0342-402e-aa7a-24f27b712148}; !- HVAC Component

OS:Sizing:Zone,
  {75e4be40-c7f0-47d0-a73b-47c8b47c84ec}, !- Handle
  {0b1a01d8-0342-402e-aa7a-24f27b712148}, !- Zone or ZoneList Name
  SupplyAirTemperature,                   !- Zone Cooling Design Supply Air Temperature Input Method
  14,                                     !- Zone Cooling Design Supply Air Temperature {C}
  11.11,                                  !- Zone Cooling Design Supply Air Temperature Difference {deltaC}
  SupplyAirTemperature,                   !- Zone Heating Design Supply Air Temperature Input Method
  40,                                     !- Zone Heating Design Supply Air Temperature {C}
  11.11,                                  !- Zone Heating Design Supply Air Temperature Difference {deltaC}
  0.0085,                                 !- Zone Cooling Design Supply Air Humidity Ratio {kg-H2O/kg-air}
  0.008,                                  !- Zone Heating Design Supply Air Humidity Ratio {kg-H2O/kg-air}
  ,                                       !- Zone Heating Sizing Factor
  ,                                       !- Zone Cooling Sizing Factor
  DesignDay,                              !- Cooling Design Air Flow Method
  ,                                       !- Cooling Design Air Flow Rate {m3/s}
  ,                                       !- Cooling Minimum Air Flow per Zone Floor Area {m3/s-m2}
  ,                                       !- Cooling Minimum Air Flow {m3/s}
  ,                                       !- Cooling Minimum Air Flow Fraction
  DesignDay,                              !- Heating Design Air Flow Method
  ,                                       !- Heating Design Air Flow Rate {m3/s}
  ,                                       !- Heating Maximum Air Flow per Zone Floor Area {m3/s-m2}
  ,                                       !- Heating Maximum Air Flow {m3/s}
  ,                                       !- Heating Maximum Air Flow Fraction
  ,                                       !- Design Zone Air Distribution Effectiveness in Cooling Mode
  ,                                       !- Design Zone Air Distribution Effectiveness in Heating Mode
  No,                                     !- Account for Dedicated Outdoor Air System
  NeutralSupplyAir,                       !- Dedicated Outdoor Air System Control Strategy
  autosize,                               !- Dedicated Outdoor Air Low Setpoint Temperature for Design {C}
  autosize;                               !- Dedicated Outdoor Air High Setpoint Temperature for Design {C}

OS:ZoneHVAC:EquipmentList,
  {526cd507-c004-49e7-a8f5-cb7375e8f267}, !- Handle
  {737f38e9-05df-4821-a3fb-ee35ef6e1e24}, !- Name
  {0b1a01d8-0342-402e-aa7a-24f27b712148}; !- Thermal Zone

OS:Facility,
  {1f8b5323-db72-4e0c-95d0-a343ac6655ff}; !- Handle

OS:Building,
  {12b79205-4d8c-4a45-b03f-7464641820f0}, !- Handle
  Project Name,                           !- Name
  ,                                       !- Building Sector Type
  ,                                       !- North Axis {deg}
  ,                                       !- Nominal Floor to Floor Height {m}
  ,                                       !- Space Type Name
  ,                                       !- Default Construction Set Name
  ;                                       !- Default Schedule Set Name

OS:Space,
  {998ab1d9-8ca0-456f-ab32-4d45e042bad9}, !- Handle
  aim0014,                                !- Name
  ,                                       !- Space Type Name
  ,                                       !- Default Construction Set Name
  ,                                       !- Default Schedule Set Name
  ,                                       !- Direction of Relative North {deg}
  ,                                       !- X Origin {m}
  ,                                       !- Y Origin {m}
  ,                                       !- Z Origin {m}
  ,                                       !- Building Story Name
  {8acba8b9-a4cb-4a74-ab26-0b8859795de6}, !- Thermal Zone Name
  ,                                       !- Part of Total Floor Area
  {aee48879-c1d0-43ee-99c9-e0371c586fba}; !- Design Specification Outdoor Air Object Name

OS:ThermalZone,
  {8acba8b9-a4cb-4a74-ab26-0b8859795de6}, !- Handle
  aim0014 ThermalZone,                    !- Name
  ,                                       !- Multiplier
  ,                                       !- Ceiling Height {m}
  ,                                       !- Volume {m3}
  ,                                       !- Floor Area {m2}
  ,                                       !- Zone Inside Convection Algorithm
  ,                                       !- Zone Outside Convection Algorithm
  ,                                       !- Zone Conditioning Equipment List Name
  {5982fb97-763d-4f8b-a1ed-6a5aee8b50f9}, !- Zone Air Inlet Port List
  {006f6886-8147-4bbf-8efa-b6e484c56714}, !- Zone Air Exhaust Port List
  {87958d61-d7d9-43f0-a51d-71daa0229a53}, !- Zone Air Node Name
  {8c313639-a120-4c2d-ae55-ff93e33df269}, !- Zone Return Air Port List
  ,                                       !- Primary Daylighting Control Name
  ,                                       !- Fraction of Zone Controlled by Primary Daylighting Control
  ,                                       !- Secondary Daylighting Control Name
  ,                                       !- Fraction of Zone Controlled by Secondary Daylighting Control
  ,                                       !- Illuminance Map Name
  ,                                       !- Group Rendering Name
  ,                                       !- Thermostat Name
  No;                                     !- Use Ideal Air Loads

OS:Node,
  {378cf339-618c-47b8-9e74-d6bf2255eee1}, !- Handle
  {8d0a8717-ba5d-47cc-aa68-9a6b9f0f692a}, !- Name
  {87958d61-d7d9-43f0-a51d-71daa0229a53}, !- Inlet Port
  ;                                       !- Outlet Port

OS:Connection,
  {87958d61-d7d9-43f0-a51d-71daa0229a53}, !- Handle
  {94eaf67e-613f-466b-9050-ae37e3347e67}, !- Name
  {8acba8b9-a4cb-4a74-ab26-0b8859795de6}, !- Source Object
  11,                                     !- Outlet Port
  {378cf339-618c-47b8-9e74-d6bf2255eee1}, !- Target Object
  2;                                      !- Inlet Port

OS:PortList,
  {5982fb97-763d-4f8b-a1ed-6a5aee8b50f9}, !- Handle
  {7c7eb06a-2cb2-4a3e-98f9-f9ab2b929ea0}, !- Name
  {8acba8b9-a4cb-4a74-ab26-0b8859795de6}; !- HVAC Component

OS:PortList,
  {006f6886-8147-4bbf-8efa-b6e484c56714}, !- Handle
  {9d559e27-c87f-4e2b-b68d-7427d259d2df}, !- Name
  {8acba8b9-a4cb-4a74-ab26-0b8859795de6}; !- HVAC Component

OS:PortList,
  {8c313639-a120-4c2d-ae55-ff93e33df269}, !- Handle
  {682ac874-1ed0-4cac-a880-85a58adee15e}, !- Name
  {8acba8b9-a4cb-4a74-ab26-0b8859795de6}; !- HVAC Component

OS:Sizing:Zone,
  {b0735dd8-482f-4671-9881-25f57d5cf5e3}, !- Handle
  {8acba8b9-a4cb-4a74-ab26-0b8859795de6}, !- Zone or ZoneList Name
  SupplyAirTemperature,                   !- Zone Cooling Design Supply Air Temperature Input Method
  14,                                     !- Zone Cooling Design Supply Air Temperature {C}
  11.11,                                  !- Zone Cooling Design Supply Air Temperature Difference {deltaC}
  SupplyAirTemperature,                   !- Zone Heating Design Supply Air Temperature Input Method
  40,                                     !- Zone Heating Design Supply Air Temperature {C}
  11.11,                                  !- Zone Heating Design Supply Air Temperature Difference {deltaC}
  0.0085,                                 !- Zone Cooling Design Supply Air Humidity Ratio {kg-H2O/kg-air}
  0.008,                                  !- Zone Heating Design Supply Air Humidity Ratio {kg-H2O/kg-air}
  ,                                       !- Zone Heating Sizing Factor
  ,                                       !- Zone Cooling Sizing Factor
  DesignDay,                              !- Cooling Design Air Flow Method
  ,                                       !- Cooling Design Air Flow Rate {m3/s}
  ,                                       !- Cooling Minimum Air Flow per Zone Floor Area {m3/s-m2}
  ,                                       !- Cooling Minimum Air Flow {m3/s}
  ,                                       !- Cooling Minimum Air Flow Fraction
  DesignDay,                              !- Heating Design Air Flow Method
  ,                                       !- Heating Design Air Flow Rate {m3/s}
  ,                                       !- Heating Maximum Air Flow per Zone Floor Area {m3/s-m2}
  ,                                       !- Heating Maximum Air Flow {m3/s}
  ,                                       !- Heating Maximum Air Flow Fraction
  ,                                       !- Design Zone Air Distribution Effectiveness in Cooling Mode
  ,                                       !- Design Zone Air Distribution Effectiveness in Heating Mode
  No,                                     !- Account for Dedicated Outdoor Air System
  NeutralSupplyAir,                       !- Dedicated Outdoor Air System Control Strategy
  autosize,                               !- Dedicated Outdoor Air Low Setpoint Temperature for Design {C}
  autosize;                               !- Dedicated Outdoor Air High Setpoint Temperature for Design {C}

OS:ZoneHVAC:EquipmentList,
  {4e77d5be-f0d4-47a0-9a6a-866266285bd4}, !- Handle
  {d2dcbb3f-a07d-4903-ae53-a07fbbbcfcbe}, !- Name
  {8acba8b9-a4cb-4a74-ab26-0b8859795de6}; !- Thermal Zone

OS:Space,
  {c7254918-2f18-491c-b91e-49259e2322b1}, !- Handle
  aim0015,                                !- Name
  ,                                       !- Space Type Name
  ,                                       !- Default Construction Set Name
  ,                                       !- Default Schedule Set Name
  ,                                       !- Direction of Relative North {deg}
  ,                                       !- X Origin {m}
  ,                                       !- Y Origin {m}
  ,                                       !- Z Origin {m}
  ,                                       !- Building Story Name
  {68473c37-fdd5-47b3-b8c1-84bfa4279457}, !- Thermal Zone Name
  ,                                       !- Part of Total Floor Area
  {6c64d519-b295-409b-97fb-6842e6374501}; !- Design Specification Outdoor Air Object Name

OS:ThermalZone,
  {68473c37-fdd5-47b3-b8c1-84bfa4279457}, !- Handle
  aim0015 ThermalZone,                    !- Name
  ,                                       !- Multiplier
  ,                                       !- Ceiling Height {m}
  ,                                       !- Volume {m3}
  ,                                       !- Floor Area {m2}
  ,                                       !- Zone Inside Convection Algorithm
  ,                                       !- Zone Outside Convection Algorithm
  ,                                       !- Zone Conditioning Equipment List Name
  {cfc14079-0df1-4bc0-96bd-1c56f3a1f84f}, !- Zone Air Inlet Port List
  {ea3746e0-6774-4bf5-8ac0-96ec71372da9}, !- Zone Air Exhaust Port List
  {ae543f8a-8551-498e-8994-89ea0cadc2c7}, !- Zone Air Node Name
  {9a852dfb-c6ca-4e5f-b11a-2e677c6e2868}, !- Zone Return Air Port List
  ,                                       !- Primary Daylighting Control Name
  ,                                       !- Fraction of Zone Controlled by Primary Daylighting Control
  ,                                       !- Secondary Daylighting Control Name
  ,                                       !- Fraction of Zone Controlled by Secondary Daylighting Control
  ,                                       !- Illuminance Map Name
  ,                                       !- Group Rendering Name
  ,                                       !- Thermostat Name
  No;                                     !- Use Ideal Air Loads

OS:Node,
  {2207278d-0acf-4384-a243-1104f187f1fe}, !- Handle
  {fce41534-6807-4d6e-b56e-99fb9df4f98e}, !- Name
  {ae543f8a-8551-498e-8994-89ea0cadc2c7}, !- Inlet Port
  ;                                       !- Outlet Port

OS:Connection,
  {ae543f8a-8551-498e-8994-89ea0cadc2c7}, !- Handle
  {7f997f5a-e45e-4574-8e12-cdf7b1c6b8fc}, !- Name
  {68473c37-fdd5-47b3-b8c1-84bfa4279457}, !- Source Object
  11,                                     !- Outlet Port
  {2207278d-0acf-4384-a243-1104f187f1fe}, !- Target Object
  2;                                      !- Inlet Port

OS:PortList,
  {cfc14079-0df1-4bc0-96bd-1c56f3a1f84f}, !- Handle
  {3390abad-7901-453a-ae3c-c4d77a51f4a6}, !- Name
  {68473c37-fdd5-47b3-b8c1-84bfa4279457}; !- HVAC Component

OS:PortList,
  {ea3746e0-6774-4bf5-8ac0-96ec71372da9}, !- Handle
  {7dfee2b5-d9a1-43fa-b341-b18f482e065d}, !- Name
  {68473c37-fdd5-47b3-b8c1-84bfa4279457}; !- HVAC Component

OS:PortList,
  {9a852dfb-c6ca-4e5f-b11a-2e677c6e2868}, !- Handle
  {8740f196-4ae3-477c-b422-397733ac921e}, !- Name
  {68473c37-fdd5-47b3-b8c1-84bfa4279457}; !- HVAC Component

OS:Sizing:Zone,
  {baa425e0-f933-45e4-a1bf-b7dd25398fd7}, !- Handle
  {68473c37-fdd5-47b3-b8c1-84bfa4279457}, !- Zone or ZoneList Name
  SupplyAirTemperature,                   !- Zone Cooling Design Supply Air Temperature Input Method
  14,                                     !- Zone Cooling Design Supply Air Temperature {C}
  11.11,                                  !- Zone Cooling Design Supply Air Temperature Difference {deltaC}
  SupplyAirTemperature,                   !- Zone Heating Design Supply Air Temperature Input Method
  40,                                     !- Zone Heating Design Supply Air Temperature {C}
  11.11,                                  !- Zone Heating Design Supply Air Temperature Difference {deltaC}
  0.0085,                                 !- Zone Cooling Design Supply Air Humidity Ratio {kg-H2O/kg-air}
  0.008,                                  !- Zone Heating Design Supply Air Humidity Ratio {kg-H2O/kg-air}
  ,                                       !- Zone Heating Sizing Factor
  ,                                       !- Zone Cooling Sizing Factor
  DesignDay,                              !- Cooling Design Air Flow Method
  ,                                       !- Cooling Design Air Flow Rate {m3/s}
  ,                                       !- Cooling Minimum Air Flow per Zone Floor Area {m3/s-m2}
  ,                                       !- Cooling Minimum Air Flow {m3/s}
  ,                                       !- Cooling Minimum Air Flow Fraction
  DesignDay,                              !- Heating Design Air Flow Method
  ,                                       !- Heating Design Air Flow Rate {m3/s}
  ,                                       !- Heating Maximum Air Flow per Zone Floor Area {m3/s-m2}
  ,                                       !- Heating Maximum Air Flow {m3/s}
  ,                                       !- Heating Maximum Air Flow Fraction
  ,                                       !- Design Zone Air Distribution Effectiveness in Cooling Mode
  ,                                       !- Design Zone Air Distribution Effectiveness in Heating Mode
  No,                                     !- Account for Dedicated Outdoor Air System
  NeutralSupplyAir,                       !- Dedicated Outdoor Air System Control Strategy
  autosize,                               !- Dedicated Outdoor Air Low Setpoint Temperature for Design {C}
  autosize;                               !- Dedicated Outdoor Air High Setpoint Temperature for Design {C}

OS:ZoneHVAC:EquipmentList,
  {1966e8dd-888d-4114-857a-54a8a39e9ace}, !- Handle
  {8b30466b-64b5-4afa-a8d3-9120ab1aa8d5}, !- Name
  {68473c37-fdd5-47b3-b8c1-84bfa4279457}; !- Thermal Zone

OS:Space,
  {9a52f0ee-a4ef-4c29-92b6-124f422c4fd8}, !- Handle
  aim0058,                                !- Name
  ,                                       !- Space Type Name
  ,                                       !- Default Construction Set Name
  ,                                       !- Default Schedule Set Name
  ,                                       !- Direction of Relative North {deg}
  ,                                       !- X Origin {m}
  ,                                       !- Y Origin {m}
  ,                                       !- Z Origin {m}
  ,                                       !- Building Story Name
  {d7cd581b-ca07-4c05-b401-c51051d89f75}, !- Thermal Zone Name
  ,                                       !- Part of Total Floor Area
  {84dce852-1d00-4f41-bab9-47a4fc09af31}; !- Design Specification Outdoor Air Object Name

OS:ThermalZone,
  {d7cd581b-ca07-4c05-b401-c51051d89f75}, !- Handle
  aim0058 ThermalZone,                    !- Name
  ,                                       !- Multiplier
  ,                                       !- Ceiling Height {m}
  ,                                       !- Volume {m3}
  ,                                       !- Floor Area {m2}
  ,                                       !- Zone Inside Convection Algorithm
  ,                                       !- Zone Outside Convection Algorithm
  ,                                       !- Zone Conditioning Equipment List Name
  {ba525737-3e10-483f-931d-8714f6117c3d}, !- Zone Air Inlet Port List
  {cdc0725f-60f0-4d40-be56-623a4714d3b3}, !- Zone Air Exhaust Port List
  {3c2bc935-941c-4286-b94a-9eed02fdb421}, !- Zone Air Node Name
  {d3c37179-77f5-43a9-bb30-4da95c31c604}, !- Zone Return Air Port List
  ,                                       !- Primary Daylighting Control Name
  ,                                       !- Fraction of Zone Controlled by Primary Daylighting Control
  ,                                       !- Secondary Daylighting Control Name
  ,                                       !- Fraction of Zone Controlled by Secondary Daylighting Control
  ,                                       !- Illuminance Map Name
  ,                                       !- Group Rendering Name
  ,                                       !- Thermostat Name
  No;                                     !- Use Ideal Air Loads

OS:Node,
  {15e9004f-4cae-4dfe-b704-6e4d86183c72}, !- Handle
  {71af22a7-c06a-4a40-93b8-f46b34e98777}, !- Name
  {3c2bc935-941c-4286-b94a-9eed02fdb421}, !- Inlet Port
  ;                                       !- Outlet Port

OS:Connection,
  {3c2bc935-941c-4286-b94a-9eed02fdb421}, !- Handle
  {f3f29e08-9958-43f8-917a-06723a1f30ce}, !- Name
  {d7cd581b-ca07-4c05-b401-c51051d89f75}, !- Source Object
  11,                                     !- Outlet Port
  {15e9004f-4cae-4dfe-b704-6e4d86183c72}, !- Target Object
  2;                                      !- Inlet Port

OS:PortList,
  {ba525737-3e10-483f-931d-8714f6117c3d}, !- Handle
  {c5ad07b7-9da2-42c4-89ff-f66a950abb40}, !- Name
  {d7cd581b-ca07-4c05-b401-c51051d89f75}; !- HVAC Component

OS:PortList,
  {cdc0725f-60f0-4d40-be56-623a4714d3b3}, !- Handle
  {3cb5a04e-7267-4dae-9eef-fecfc3d47257}, !- Name
  {d7cd581b-ca07-4c05-b401-c51051d89f75}; !- HVAC Component

OS:PortList,
  {d3c37179-77f5-43a9-bb30-4da95c31c604}, !- Handle
  {1e9297d0-073d-4138-a6d1-05a9608c6cf4}, !- Name
  {d7cd581b-ca07-4c05-b401-c51051d89f75}; !- HVAC Component

OS:Sizing:Zone,
  {076939c1-7027-410d-aa85-7bb4ea3dc5c4}, !- Handle
  {d7cd581b-ca07-4c05-b401-c51051d89f75}, !- Zone or ZoneList Name
  SupplyAirTemperature,                   !- Zone Cooling Design Supply Air Temperature Input Method
  14,                                     !- Zone Cooling Design Supply Air Temperature {C}
  11.11,                                  !- Zone Cooling Design Supply Air Temperature Difference {deltaC}
  SupplyAirTemperature,                   !- Zone Heating Design Supply Air Temperature Input Method
  40,                                     !- Zone Heating Design Supply Air Temperature {C}
  11.11,                                  !- Zone Heating Design Supply Air Temperature Difference {deltaC}
  0.0085,                                 !- Zone Cooling Design Supply Air Humidity Ratio {kg-H2O/kg-air}
  0.008,                                  !- Zone Heating Design Supply Air Humidity Ratio {kg-H2O/kg-air}
  ,                                       !- Zone Heating Sizing Factor
  ,                                       !- Zone Cooling Sizing Factor
  DesignDay,                              !- Cooling Design Air Flow Method
  ,                                       !- Cooling Design Air Flow Rate {m3/s}
  ,                                       !- Cooling Minimum Air Flow per Zone Floor Area {m3/s-m2}
  ,                                       !- Cooling Minimum Air Flow {m3/s}
  ,                                       !- Cooling Minimum Air Flow Fraction
  DesignDay,                              !- Heating Design Air Flow Method
  ,                                       !- Heating Design Air Flow Rate {m3/s}
  ,                                       !- Heating Maximum Air Flow per Zone Floor Area {m3/s-m2}
  ,                                       !- Heating Maximum Air Flow {m3/s}
  ,                                       !- Heating Maximum Air Flow Fraction
  ,                                       !- Design Zone Air Distribution Effectiveness in Cooling Mode
  ,                                       !- Design Zone Air Distribution Effectiveness in Heating Mode
  No,                                     !- Account for Dedicated Outdoor Air System
  NeutralSupplyAir,                       !- Dedicated Outdoor Air System Control Strategy
  autosize,                               !- Dedicated Outdoor Air Low Setpoint Temperature for Design {C}
  autosize;                               !- Dedicated Outdoor Air High Setpoint Temperature for Design {C}

OS:ZoneHVAC:EquipmentList,
  {eae08560-6bd4-4614-8a04-f272ff790a48}, !- Handle
  {92d81663-4b63-4bb7-a53f-6040629b260a}, !- Name
  {d7cd581b-ca07-4c05-b401-c51051d89f75}; !- Thermal Zone

OS:Space,
  {5cdfd401-b155-4a95-be26-95c43612136b}, !- Handle
  aim0059,                                !- Name