
OS:Version,
  {44eff530-9bb1-4dca-b7c7-ab319e16bcf6}, !- Handle
  2.7.1;                                  !- Version Identifier

OS:Material,
  {b02f45ef-41d3-4b69-95ac-01ed854f4eb6}, !- Handle
  8 in lightweight concrete,              !- Name
  MediumRough,                            !- Roughness
  0.2032,                                 !- Thickness {m}
  0.53,                                   !- Conductivity {W/m-K}
  1280,                                   !- Density {kg/m3}
  840;                                    !- Specific Heat {J/kg-K}

OS:Material,
  {777dee25-dc8f-4ef7-8217-21460e0f4231}, !- Handle
  Metal surface,                          !- Name
  MediumRough,                            !- Roughness
  0.0008,                                 !- Thickness {m}
  45.28,                                  !- Conductivity {W/m-K}
  7824,                                   !- Density {kg/m3}
  500;                                    !- Specific Heat {J/kg-K}

OS:Material,
  {2e46b694-611c-44d1-93b3-8ba4e99583fc}, !- Handle
  1 1/2 in wood,                          !- Name
  MediumRough,                            !- Roughness
  0.0376,                                 !- Thickness {m}
  0.15,                                   !- Conductivity {W/m-K}
  608,                                    !- Density {kg/m3}
  1630;                                   !- Specific Heat {J/kg-K}

OS:Material,
  {02fbd803-795f-477a-9d0d-8df624c51fbc}, !- Handle
  Carpet,                                 !- Name
  MediumRough,                            !- Roughness
  0.0127,                                 !- Thickness {m}
  0.06,                                   !- Conductivity {W/m-K}
  288,                                    !- Density {kg/m3}
  1380;                                   !- Specific Heat {J/kg-K}

OS:Material,
  {089963ac-ad32-4d52-a7c6-83736c5d3914}, !- Handle
  Concrete cast dense reinforced,         !- Name
  MediumRough,                            !- Roughness
  0.2,                                    !- Thickness {m}
  1.9,                                    !- Conductivity {W/m-K}
  2300,                                   !- Density {kg/m3}
  840;                                    !- Specific Heat {J/kg-K}

OS:Material,
  {811eda47-283c-4f1c-bd77-5593661b4a92}, !- Handle
  4 in lightweight concrete block,        !- Name
  MediumRough,                            !- Roughness
  0.1016,                                 !- Thickness {m}
  0.89,                                   !- Conductivity {W/m-K}
  1920,                                   !- Density {kg/m3}
  790;                                    !- Specific Heat {J/kg-K}

OS:Material:NoMass,
  {26c8390d-9f65-45ec-936b-84eb0b2b46c5}, !- Handle
  Minwool batt R11 w/ 2x4 frame,          !- Name
  Smooth,                                 !- Roughness
  1.46524;                                !- Thermal Resistance {m2-K/W}

OS:Material,
  {1e94b81c-36b9-4606-a57c-82315c6bf27e}, !- Handle
  5/8 in gyp board,                       !- Name
  MediumRough,                            !- Roughness
  0.0159,                                 !- Thickness {m}
  0.16,                                   !- Conductivity {W/m-K}
  800,                                    !- Density {kg/m3}
  1090;                                   !- Specific Heat {J/kg-K}

OS:Construction,
  {e3588a0b-158a-4efa-bfc9-d3a53a1769f5}, !- Handle
  8 in lightweight concrete block,        !- Name
  ,                                       !- Surface Rendering Name
  {b02f45ef-41d3-4b69-95ac-01ed854f4eb6}, !- Layer 1
  {b02f45ef-41d3-4b69-95ac-01ed854f4eb6}; !- Layer 2

OS:Construction,
  {a72bf920-af6f-4ad4-8394-c913589d3dd7}, !- Handle
  Metal,                                  !- Name
  ,                                       !- Surface Rendering Name
  {777dee25-dc8f-4ef7-8217-21460e0f4231}, !- Layer 1
  {2e46b694-611c-44d1-93b3-8ba4e99583fc}, !- Layer 2
  {777dee25-dc8f-4ef7-8217-21460e0f4231}; !- Layer 3

OS:Construction,
  {3ecccb3a-7690-4321-af9e-a98e40ec434e}, !- Handle
  Un-insulated solid,                     !- Name
  ,                                       !- Surface Rendering Name
  {02fbd803-795f-477a-9d0d-8df624c51fbc}, !- Layer 1
  {089963ac-ad32-4d52-a7c6-83736c5d3914}; !- Layer 2

OS:Construction,
  {99b55597-b141-4135-8ccc-6ae0cd216337}, !- Handle
  4 in lightweight concrete,              !- Name
  ,                                       !- Surface Rendering Name
  {811eda47-283c-4f1c-bd77-5593661b4a92}; !- Layer 1

OS:Construction,
  {6b8f3f46-9532-472c-b965-24fa32b33eb0}, !- Handle
  Frame partition with 3/4 in gypsum board, !- Name
  ,                                       !- Surface Rendering Name
  {26c8390d-9f65-45ec-936b-84eb0b2b46c5}, !- Layer 1
  {1e94b81c-36b9-4606-a57c-82315c6bf27e}; !- Layer 2

OS:Construction,
  {f86a0733-3097-4ac7-96a8-3901b910ab77}, !- Handle
  Large double-glazed windows (reflective coating) - industry, !- Name
  ,                                       !- Surface Rendering Name
  {174e70b4-9465-4c67-b491-34b8eab0edc2}; !- Layer 1

OS:WindowMaterial:SimpleGlazingSystem,
  {174e70b4-9465-4c67-b491-34b8eab0edc2}, !- Handle
  {2461544e-35eb-4626-9ada-afdf67f7fb4b}, !- Name
  2.9214,                                 !- U-Factor {W/m2-K}
  0.13,                                   !- Solar Heat Gain Coefficient
  0.07;                                   !- Visible Transmittance

OS:ScheduleTypeLimits,
  {290eeb18-ec30-49fb-85c2-a9938f0a9842}, !- Handle
  Fraction,                               !- Name
  ,                                       !- Lower Limit Value
  ,                                       !- Upper Limit Value
  ,                                       !- Numeric Type
  Dimensionless;                          !- Unit Type

OS:YearDescription,
  {723c2d5e-6205-43c8-bfb0-9a35aec11ebc}, !- Handle
  2018,                                   !- Calendar Year
  ,                                       !- Day of Week for Start Day
  ;                                       !- Is Leap Year

OS:ThermalZone,
  {9359456c-3340-44a8-b689-0561b6770db2}, !- Handle
  VAV-1,                                  !- Name
  ,                                       !- Multiplier
  ,                                       !- Ceiling Height {m}
  58.6542700894188,                       !- Volume {m3}
  ,                                       !- Floor Area {m2}
  ,                                       !- Zone Inside Convection Algorithm
  ,                                       !- Zone Outside Convection Algorithm
  ,                                       !- Zone Conditioning Equipment List Name
  {e25c6373-6ff1-4f0c-a09a-b60eabcdabf4}, !- Zone Air Inlet Port List
  {58d95749-d724-4030-9049-86d7555c2530}, !- Zone Air Exhaust Port List
  {1389fd05-ea9f-49bc-84fb-baced79b63c4}, !- Zone Air Node Name
  {a46269ae-cbc1-458d-a378-6c7cef277aad}, !- Zone Return Air Port List
  ,                                       !- Primary Daylighting Control Name
  ,                                       !- Fraction of Zone Controlled by Primary Daylighting Control
  ,                                       !- Secondary Daylighting Control Name
  ,                                       !- Fraction of Zone Controlled by Secondary Daylighting Control
  ,                                       !- Illuminance Map Name
  ,                                       !- Group Rendering Name
  ,                                       !- Thermostat Name
  No;                                     !- Use Ideal Air Loads

OS:Node,
  {213c58b9-3873-4c8c-b7c5-7395d80d395f}, !- Handle
  {8170525c-f6c4-40ee-adb5-270d0f8414fb}, !- Name
  {1389fd05-ea9f-49bc-84fb-baced79b63c4}, !- Inlet Port
  ;                                       !- Outlet Port

OS:Connection,
  {1389fd05-ea9f-49bc-84fb-baced79b63c4}, !- Handle
  {cc442659-449e-46aa-8550-a9a19ecf7a7b}, !- Name
  {9359456c-3340-44a8-b689-0561b6770db2}, !- Source Object
  11,                                     !- Outlet Port
  {213c58b9-3873-4c8c-b7c5-7395d80d395f}, !- Target Object
  2;                                      !- Inlet Port

OS:PortList,
  {e25c6373-6ff1-4f0c-a09a-b60eabcdabf4}, !- Handle
  {13194afd-aa8e-439b-b1a5-eefd64a54f9b}, !- Name
  {9359456c-3340-44a8-b689-0561b6770db2}; !- HVAC Component

OS:PortList,
  {58d95749-d724-4030-9049-86d7555c2530}, !- Handle
  {867021e8-70cd-41e6-8efc-e3e3d3cb59f5}, !- Name
  {9359456c-3340-44a8-b689-0561b6770db2}; !- HVAC Component

OS:PortList,
  {a46269ae-cbc1-458d-a378-6c7cef277aad}, !- Handle
  {d9190961-876a-45d7-a5a4-c27b6a0b7406}, !- Name
  {9359456c-3340-44a8-b689-0561b6770db2}; !- HVAC Component

OS:Sizing:Zone,
  {42857894-878a-4f13-aea2-493b519cb084}, !- Handle
  {9359456c-3340-44a8-b689-0561b6770db2}, !- Zone or ZoneList Name
  SupplyAirTemperature,                   !- Zone Cooling Design Supply Air Temperature Input Method
  14,                                     !- Zone Cooling Design Supply Air Temperature {C}
  11.11,                                  !- Zone Cooling Design Supply Air Temperature Difference {deltaC}
  SupplyAirTemperature,                   !- Zone Heating Design Supply Air Temperature Input Method
  40,                                     !- Zone Heating Design Supply Air Temperature {C}
  11.11,                                  !- Zone Heating Design Supply Air Temperature Difference {deltaC}
  0.0085,                                 !- Zone Cooling Design Supply Air Humidity Ratio {kg-H2O/kg-air}
  0.008,                                  !- Zone Heating Design Supply Air Humidity Ratio {kg-H2O/kg-air}
  ,                                       !- Zone Heating Sizing Factor
  ,                                       !- Zone Cooling Sizing Factor
  DesignDay,                              !- Cooling Design Air Flow Method
  ,                                       !- Cooling Design Air Flow Rate {m3/s}
  ,                                       !- Cooling Minimum Air Flow per Zone Floor Area {m3/s-m2}
  ,                                       !- Cooling Minimum Air Flow {m3/s}
  ,                                       !- Cooling Minimum Air Flow Fraction
  DesignDay,                              !- Heating Design Air Flow Method
  ,                                       !- Heating Design Air Flow Rate {m3/s}
  ,                                       !- Heating Maximum Air Flow per Zone Floor Area {m3/s-m2}
  ,                                       !- Heating Maximum Air Flow {m3/s}
  ,                                       !- Heating Maximum Air Flow Fraction
  ,                                       !- Design Zone Air Distribution Effectiveness in Cooling Mode
  ,                                       !- Design Zone Air Distribution Effectiveness in Heating Mode
  No,                                     !- Account for Dedicated Outdoor Air System
  NeutralSupplyAir,                       !- Dedicated Outdoor Air System Control Strategy
  autosize,                               !- Dedicated Outdoor Air Low Setpoint Temperature for Design {C}
  autosize;                               !- Dedicated Outdoor Air High Setpoint Temperature for Design {C}

OS:ZoneHVAC:EquipmentList,
  {a34362f7-d45e-493c-95aa-18deffb04eba}, !- Handle
  {6104dd0e-9f8b-426b-a947-10a4960b645f}, !- Name
  {9359456c-3340-44a8-b689-0561b6770db2}; !- Thermal Zone

OS:ThermalZone,
  {c2f2d96d-d47d-406e-9330-cb35ed2ae8d9}, !- Handle
  VAV-2,                                  !- Name
  ,                                       !- Multiplier
  ,                                       !- Ceiling Height {m}
  58.222211644118,                        !- Volume {m3}
  ,                                       !- Floor Area {m2}
  ,                                       !- Zone Inside Convection Algorithm
  ,                                       !- Zone Outside Convection Algorithm
  ,                                       !- Zone Conditioning Equipment List Name
  {bd2a4852-83f1-4745-9aee-2526e85526ea}, !- Zone Air Inlet Port List
  {1b8f9f46-b3c6-4f62-9b49-80f4424ab986}, !- Zone Air Exhaust Port List
  {4a20227c-f609-4159-a63c-e3c85ab268f2}, !- Zone Air Node Name
  {97ac43d3-87a4-4975-8465-52ca2f26a898}, !- Zone Return Air Port List
  ,                                       !- Primary Daylighting Control Name
  ,                                       !- Fraction of Zone Controlled by Primary Daylighting Control
  ,                                       !- Secondary Daylighting Control Name
  ,                                       !- Fraction of Zone Controlled by Secondary Daylighting Control
  ,                                       !- Illuminance Map Name
  ,                                       !- Group Rendering Name
  ,                                       !- Thermostat Name
  No;                                     !- Use Ideal Air Loads

OS:Node,
  {c3ef19bb-3036-42e8-b1d7-eab0a5c7e3c7}, !- Handle
  {259992dd-d93b-49c6-9864-584579740675}, !- Name
  {4a20227c-f609-4159-a63c-e3c85ab268f2}, !- Inlet Port
  ;                                       !- Outlet Port

OS:Connection,
  {4a20227c-f609-4159-a63c-e3c85ab268f2}, !- Handle
  {685c486f-da46-4ab8-b247-3111fde1cb1b}, !- Name
  {c2f2d96d-d47d-406e-9330-cb35ed2ae8d9}, !- Source Object
  11,                                     !- Outlet Port
  {c3ef19bb-3036-42e8-b1d7-eab0a5c7e3c7}, !- Target Object
  2;                                      !- Inlet Port

OS:PortList,
  {bd2a4852-83f1-4745-9aee-2526e85526ea}, !- Handle
  {d8eaec20-ff96-4222-9786-901623135f93}, !- Name
  {c2f2d96d-d47d-406e-9330-cb35ed2ae8d9}; !- HVAC Component

OS:PortList,
  {1b8f9f46-b3c6-4f62-9b49-80f4424ab986}, !- Handle
  {b78c22d9-43e6-49eb-89b2-1fcef3a257cb}, !- Name
  {c2f2d96d-d47d-406e-9330-cb35ed2ae8d9}; !- HVAC Component

OS:PortList,
  {97ac43d3-87a4-4975-8465-52ca2f26a898}, !- Handle
  {191dc12e-24f6-405c-ae86-d2bf1cec1519}, !- Name
  {c2f2d96d-d47d-406e-9330-cb35ed2ae8d9}; !- HVAC Component

OS:Sizing:Zone,
  {09e215bb-2610-44ae-bb72-d03f1c20dabc}, !- Handle
  {c2f2d96d-d47d-406e-9330-cb35ed2ae8d9}, !- Zone or ZoneList Name
  SupplyAirTemperature,                   !- Zone Cooling Design Supply Air Temperature Input Method
  14,                                     !- Zone Cooling Design Supply Air Temperature {C}
  11.11,                                  !- Zone Cooling Design Supply Air Temperature Difference {deltaC}
  SupplyAirTemperature,                   !- Zone Heating Design Supply Air Temperature Input Method
  40,                                     !- Zone Heating Design Supply Air Temperature {C}
  11.11,                                  !- Zone Heating Design Supply Air Temperature Difference {deltaC}
  0.0085,                                 !- Zone Cooling Design Supply Air Humidity Ratio {kg-H2O/kg-air}
  0.008,                                  !- Zone Heating Design Supply Air Humidity Ratio {kg-H2O/kg-air}
  ,                                       !- Zone Heating Sizing Factor
  ,                                       !- Zone Cooling Sizing Factor
  DesignDay,                              !- Cooling Design Air Flow Method
  ,                                       !- Cooling Design Air Flow Rate {m3/s}
  ,                                       !- Cooling Minimum Air Flow per Zone Floor Area {m3/s-m2}
  ,                                       !- Cooling Minimum Air Flow {m3/s}
  ,                                       !- Cooling Minimum Air Flow Fraction
  DesignDay,                              !- Heating Design Air Flow Method
  ,                                       !- Heating Design Air Flow Rate {m3/s}
  ,                                       !- Heating Maximum Air Flow per Zone Floor Area {m3/s-m2}
  ,                                       !- Heating Maximum Air Flow {m3/s}
  ,                                       !- Heating Maximum Air Flow Fraction
  ,                                       !- Design Zone Air Distribution Effectiveness in Cooling Mode
  ,                                       !- Design Zone Air Distribution Effectiveness in Heating Mode
  No,                                     !- Account for Dedicated Outdoor Air System
  NeutralSupplyAir,                       !- Dedicated Outdoor Air System Control Strategy
  autosize,                               !- Dedicated Outdoor Air Low Setpoint Temperature for Design {C}
  autosize;                               !- Dedicated Outdoor Air High Setpoint Temperature for Design {C}

OS:ZoneHVAC:EquipmentList,
  {78d1d0ff-eb90-4650-aeb1-93b1e37441b9}, !- Handle
  {c2019801-2095-4099-9fa2-05949ebf55e7}, !- Name
  {c2f2d96d-d47d-406e-9330-cb35ed2ae8d9}; !- Thermal Zone

OS:Facility,
  {5d7851d1-7148-4e97-a72b-e337bd4d815d}; !- Handle

OS:Building,
  {f307b89c-f87c-4191-8d03-c14dbd37a6c6}, !- Handle
  Project Name,                           !- Name
  ,                                       !- Building Sector Type
  ,                                       !- North Axis {deg}
  ,                                       !- Nominal Floor to Floor Height {m}
  ,                                       !- Space Type Name
  ,                                       !- Default Construction Set Name
  ;                                       !- Default Schedule Set Name

OS:Space,
  {924bc368-1294-4512-a875-24e3e346a137}, !- Handle
  Villa 102,                              !- Name
  ,                                       !- Space Type Name
  ,                                       !- Default Construction Set Name
  {bccc0dbe-a387-4b19-a7f2-c231ea147bca}, !- Default Schedule Set Name
  ,                                       !- Direction of Relative North {deg}
  ,                                       !- X Origin {m}
  ,                                       !- Y Origin {m}
  ,                                       !- Z Origin {m}
  ,                                       !- Building Story Name
  {9359456c-3340-44a8-b689-0561b6770db2}, !- Thermal Zone Name
  ,                                       !- Part of Total Floor Area
  {328eb0bf-b865-4b8d-9179-4e637014d76c}; !- Design Specification Outdoor Air Object Name

OS:AdditionalProperties,
  {ef220f40-7bb1-4965-b100-3a80e1535384}, !- Handle
  {924bc368-1294-4512-a875-24e3e346a137}, !- Object Name
  CADObjectId,                            !- Feature Name 1
  String,                                 !- Feature Data Type 1
  142351;                                 !- Feature Value 1

OS:Space,
  {391000d1-110e-4a58-a90f-7fbd548a6bec}, !- Handle
  Villa 101,                              !- Name
  ,                                       !- Space Type Name
  ,                                       !- Default Construction Set Name
  {bccc0dbe-a387-4b19-a7f2-c231ea147bca}, !- Default Schedule Set Name
  ,                                       !- Direction of Relative North {deg}
  ,                                       !- X Origin {m}
  ,                                       !- Y Origin {m}
  ,                                       !- Z Origin {m}
  ,                                       !- Building Story Name
  {c2f2d96d-d47d-406e-9330-cb35ed2ae8d9}, !- Thermal Zone Name
  ,                                       !- Part of Total Floor Area
  {79a49548-5ac2-449b-9271-5778eed201e1}; !- Design Specification Outdoor Air Object Name

OS:AdditionalProperties,
  {4bc5da83-1d7e-4167-bf90-a55016ed5744}, !- Handle
  {391000d1-110e-4a58-a90f-7fbd548a6bec}, !- Object Name
  CADObjectId,                            !- Feature Name 1
  String,                                 !- Feature Data Type 1
  132406;                                 !- Feature Value 1

OS:Surface,
  {254743f0-4ac5-4ab7-8d03-627598794e36}, !- Handle
  aim0181,                                !- Name
  Wall,                                   !- Surface Type
  {e3588a0b-158a-4efa-bfc9-d3a53a1769f5}, !- Construction Name
  {924bc368-1294-4512-a875-24e3e346a137}, !- Space Name
  Outdoors,                               !- Outside Boundary Condition
  ,                                       !- Outside Boundary Condition Object
  SunExposed,                             !- Sun Exposure
  WindExposed,                            !- Wind Exposure
  ,                                       !- View Factor to Ground
  ,                                       !- Number of Vertices
  5.1816, 1.2192, 0.9144,                 !- X,Y,Z Vertex 1 {m}
  6.096, 1.2192, 0,                       !- X,Y,Z Vertex 2 {m}
  6.096, 1.2192, 3.487942224,             !- X,Y,Z Vertex 3 {m}
  5.1816, 1.2192, 2.1336;                 !- X,Y,Z Vertex 4 {m}

OS:AdditionalProperties,
  {7f28d964-24df-446f-a732-afb6ab43430a}, !- Handle
  {254743f0-4ac5-4ab7-8d03-627598794e36}, !- Object Name
  CADObjectId,                            !- Feature Name 1
  String,                                 !- Feature Data Type 1
  67;                                     !- Feature Value 1

OS:Surface,
  {6e62482f-7dba-4bd9-9381-871e0b75aa8c}, !- Handle
  aim0204,                                !- Name
  Wall,                                   !- Surface Type
  {e3588a0b-158a-4efa-bfc9-d3a53a1769f5}, !- Construction Name
  {924bc368-1294-4512-a875-24e3e346a137}, !- Space Name
  Outdoors,                               !- Outside Boundary Condition
  ,                                       !- Outside Boundary Condition Object
  SunExposed,                             !- Sun Exposure
  WindExposed,                            !- Wind Exposure
  ,                                       !- View Factor to Ground
  ,                                       !- Number of Vertices
  2.4384, 1.2192, 0,                      !- X,Y,Z Vertex 1 {m}
  6.096, 1.2192, 0,                       !- X,Y,Z Vertex 2 {m}
  5.1816, 1.2192, 0.9144,                 !- X,Y,Z Vertex 3 {m}
  4.2672, 1.2192, 0.9144;                 !- X,Y,Z Vertex 4 {m}

OS:AdditionalProperties,
  {c16534a9-e683-4b3a-a695-eafd90b30a44}, !- Handle
  {6e62482f-7dba-4bd9-9381-871e0b75aa8c}, !- Object Name
  CADObjectId,                            !- Feature Name 1
  String,                                 !- Feature Data Type 1
  67;                                     !- Feature Value 1

OS:Surface,
  {4ee1fbd4-ecb7-4c25-8092-058dade52779}, !- Handle
  aim0227,                                !- Name
  Wall,                                   !- Surface Type
  {e3588a0b-158a-4efa-bfc9-d3a53a1769f5}, !- Construction Name
  {924bc368-1294-4512-a875-24e3e346a137}, !- Space Name
  Outdoors,                               !- Outside Boundary Condition
  ,                                       !- Outside Boundary Condition Object
  SunExposed,                             !- Sun Exposure
  WindExposed,                            !- Wind Exposure
  ,                                       !- View Factor to Ground
  ,                                       !- Number of Vertices
  2.4384, 1.2192, 3.487942224,            !- X,Y,Z Vertex 1 {m}
  4.2672, 1.2192, 2.1336,                 !- X,Y,Z Vertex 2 {m}
  5.1816, 1.2192, 2.1336,                 !- X,Y,Z Vertex 3 {m}
  6.096, 1.2192, 3.487942224;             !- X,Y,Z Vertex 4 {m}

OS:AdditionalProperties,
  {a1f9c86f-2e3c-4768-a099-e9f5c100a983}, !- Handle
  {4ee1fbd4-ecb7-4c25-8092-058dade52779}, !- Object Name
  CADObjectId,                            !- Feature Name 1
  String,                                 !- Feature Data Type 1
  67;                                     !- Feature Value 1

OS:Surface,
  {2b9a1e89-c204-4a92-a2c9-a6f8cf806c52}, !- Handle
  aim0250,                                !- Name
  Wall,                                   !- Surface Type
  {e3588a0b-158a-4efa-bfc9-d3a53a1769f5}, !- Construction Name
  {924bc368-1294-4512-a875-24e3e346a137}, !- Space Name
  Outdoors,                               !- Outside Boundary Condition
  ,                                       !- Outside Boundary Condition Object
  SunExposed,                             !- Sun Exposure
  WindExposed,                            !- Wind Exposure
  ,                                       !- View Factor to Ground
  ,                                       !- Number of Vertices
  2.4384, 1.2192, 0,                      !- X,Y,Z Vertex 1 {m}
  4.2672, 1.2192, 0.9144,                 !- X,Y,Z Vertex 2 {m}
  4.2672, 1.2192, 2.1336,                 !- X,Y,Z Vertex 3 {m}
  2.4384, 1.2192, 3.487942224;            !- X,Y,Z Vertex 4 {m}

OS:AdditionalProperties,
  {aa6ba8a0-c577-445e-9040-3a9dd9663dd8}, !- Handle
  {2b9a1e89-c204-4a92-a2c9-a6f8cf806c52}, !- Object Name
  CADObjectId,                            !- Feature Name 1
  String,                                 !- Feature Data Type 1
  67;                                     !- Feature Value 1

OS:Surface,
  {51f8def5-154e-4f34-9e44-508ad24e4636}, !- Handle
  aim0273,                                !- Name
  Wall,                                   !- Surface Type
  {e3588a0b-158a-4efa-bfc9-d3a53a1769f5}, !- Construction Name
  {924bc368-1294-4512-a875-24e3e346a137}, !- Space Name
  Outdoors,                               !- Outside Boundary Condition
  ,                                       !- Outside Boundary Condition Object
  SunExposed,                             !- Sun Exposure
  WindExposed,                            !- Wind Exposure
  ,                                       !- View Factor to Ground
  ,                                       !- Number of Vertices
  4.2672, 1.2192, 0.9144,                 !- X,Y,Z Vertex 1 {m}
  5.1816, 1.2192, 0.9144,                 !- X,Y,Z Vertex 2 {m}
  5.1816, 1.2192, 2.1336,                 !- X,Y,Z Vertex 3 {m}
  4.2672, 1.2192, 2.1336;                 !- X,Y,Z Vertex 4 {m}

OS:SubSurface,
  {eae98927-aea4-4e6c-8540-5daa96849bad}, !- Handle
  aim0296,                                !- Name
  OperableWindow,                         !- Sub Surface Type
  {f86a0733-3097-4ac7-96a8-3901b910ab77}, !- Construction Name
  {51f8def5-154e-4f34-9e44-508ad24e4636}, !- Surface Name
  ,                                       !- Outside Boundary Condition Object
  ,                                       !- View Factor to Ground
  ,                                       !- Shading Control Name
  ,                                       !- Frame and Divider Name
  ,                                       !- Multiplier
  ,                                       !- Number of Vertices
  4.27245098883784, 1.2192, 0.919650988837845, !- X,Y,Z Vertex 1 {m}
  5.17634901116216, 1.2192, 0.919650988837845, !- X,Y,Z Vertex 2 {m}
  5.17634901116216, 1.2192, 2.12834901116216, !- X,Y,Z Vertex 3 {m}
  4.27245098883784, 1.2192, 2.12834901116216; !- X,Y,Z Vertex 4 {m}

OS:AdditionalProperties,
  {f889c422-015c-42eb-a433-a5f47378aae2}, !- Handle
  {51f8def5-154e-4f34-9e44-508ad24e4636}, !- Object Name
  CADObjectId,                            !- Feature Name 1
  String,                                 !- Feature Data Type 1
  68;                                     !- Feature Value 1

OS:Surface,
  {3e679456-6723-491d-a2f2-cbcd9ddcbb5b}, !- Handle
  aim0357,                                !- Name
  Wall,                                   !- Surface Type
  {e3588a0b-158a-4efa-bfc9-d3a53a1769f5}, !- Construction Name
  {391000d1-110e-4a58-a90f-7fbd548a6bec}, !- Space Name
  Outdoors,                               !- Outside Boundary Condition
  ,                                       !- Outside Boundary Condition Object
  SunExposed,                             !- Sun Exposure
  WindExposed,                            !- Wind Exposure
  ,                                       !- View Factor to Ground
  ,                                       !- Number of Vertices
  -1.2192, 1.2192, 0,                     !- X,Y,Z Vertex 1 {m}
  0.1524, 1.2192, 0,                      !- X,Y,Z Vertex 2 {m}
  0.1524, 1.2192, 2.1336,                 !- X,Y,Z Vertex 3 {m}
  1.0668, 1.2192, 2.1336,                 !- X,Y,Z Vertex 4 {m}
  1.0668, 1.2192, 0,                      !- X,Y,Z Vertex 5 {m}
  2.4384, 1.2192, 0,                      !- X,Y,Z Vertex 6 {m}
  2.4384, 1.2192, 3.487942224,            !- X,Y,Z Vertex 7 {m}
  -1.2192, 1.2192, 3.487942224;           !- X,Y,Z Vertex 8 {m}

OS:AdditionalProperties,
  {b92863c6-ea23-4327-9493-ba5b7d2b0c47}, !- Handle
  {3e679456-6723-491d-a2f2-cbcd9ddcbb5b}, !- Object Name
  CADObjectId,                            !- Feature Name 1
  String,                                 !- Feature Data Type 1
  69;                                     !- Feature Value 1

OS:Surface,
  {5e8f16c5-18f9-4352-8f7d-0beb0b89c4fa}, !- Handle
  aim0384,                                !- Name
  Wall,                                   !- Surface Type
  {e3588a0b-158a-4efa-bfc9-d3a53a1769f5}, !- Construction Name
  {391000d1-110e-4a58-a90f-7fbd548a6bec}, !- Space Name
  Outdoors,                               !- Outside Boundary Condition
  ,                                       !- Outside Boundary Condition Object
  SunExposed,                             !- Sun Exposure
  WindExposed,                            !- Wind Exposure
  ,                                       !- View Factor to Ground
  ,                                       !- Number of Vertices
  0.1524, 1.2192, 0,                      !- X,Y,Z Vertex 1 {m}
  1.0668, 1.2192, 0,                      !- X,Y,Z Vertex 2 {m}
  1.0668, 1.2192, 2.1336,                 !- X,Y,Z Vertex 3 {m}
  0.1524, 1.2192, 2.1336;                 !- X,Y,Z Vertex 4 {m}

OS:SubSurface,
  {b18a8dc6-d63e-4080-8fe7-0575148a4a1b}, !- Handle
  aim0407,                                !- Name
  Door,                                   !- Sub Surface Type
  {a72bf920-af6f-4ad4-8394-c913589d3dd7}, !- Construction Name
  {5e8f16c5-18f9-4352-8f7d-0beb0b89c4fa}, !- Surface Name
  ,                                       !- Outside Boundary Condition Object
  ,                                       !- View Factor to Ground
  ,                                       !- Shading Control Name