
OS:Version,
  {8f9fbf57-40a0-41c8-90a3-9d206ccf6e58}, !- Handle
  2.7.1;                                  !- Version Identifier

OS:ScheduleTypeLimits,
  {a0db3b4c-1765-499e-b1c4-113858afd25e}, !- Handle
  Fraction,                               !- Name
  ,                                       !- Lower Limit Value
  ,                                       !- Upper Limit Value
  ,                                       !- Numeric Type
  Dimensionless;                          !- Unit Type

OS:YearDescription,
  {d35716cd-16f0-40e0-b99f-fbaf14f2df6d}, !- Handle
  2018,                                   !- Calendar Year
  ,                                       !- Day of Week for Start Day
  ;                                       !- Is Leap Year

OS:ThermalZone,
  {71212716-256b-4358-8cff-d502d020147f}, !- Handle
  Zone Default,                           !- Name
  ,                                       !- Multiplier
  ,                                       !- Ceiling Height {m}
  25.8491608373169,                       !- Volume {m3}
  ,                                       !- Floor Area {m2}
  ,                                       !- Zone Inside Convection Algorithm
  ,                                       !- Zone Outside Convection Algorithm
  ,                                       !- Zone Conditioning Equipment List Name
  {a12b588b-9c1f-4c15-8013-389f04bab3ca}, !- Zone Air Inlet Port List
  {1def579a-b95e-42de-95cd-62218463d2b9}, !- Zone Air Exhaust Port List
  {e00d92f3-6b2d-4268-97f9-0dfa51b4f476}, !- Zone Air Node Name
  {05ad8205-b1e2-4df0-9b9b-40fc791d3635}, !- Zone Return Air Port List
  ,                                       !- Primary Daylighting Control Name
  ,                                       !- Fraction of Zone Controlled by Primary Daylighting Control
  ,                                       !- Secondary Daylighting Control Name
  ,                                       !- Fraction of Zone Controlled by Secondary Daylighting Control
  ,                                       !- Illuminance Map Name
  ,                                       !- Group Rendering Name
  ,                                       !- Thermostat Name
  No;                                     !- Use Ideal Air Loads

OS:Node,
  {abe93a20-2078-4ef2-ba67-24c014e2e6c7}, !- Handle
  {6eaa7bdf-7092-40dd-b8e9-8556916ea7bb}, !- Name
  {e00d92f3-6b2d-4268-97f9-0dfa51b4f476}, !- Inlet Port
  ;                                       !- Outlet Port

OS:Connection,
  {e00d92f3-6b2d-4268-97f9-0dfa51b4f476}, !- Handle
  {bcac4b62-f2a2-499a-9bac-5c29ee60a39c}, !- Name
  {71212716-256b-4358-8cff-d502d020147f}, !- Source Object
  11,                                     !- Outlet Port
  {abe93a20-2078-4ef2-ba67-24c014e2e6c7}, !- Target Object
  2;                                      !- Inlet Port

OS:PortList,
  {a12b588b-9c1f-4c15-8013-389f04bab3ca}, !- Handle
  {4d7957c6-992e-46a1-b1b2-a90b457790e5}, !- Name
  {71212716-256b-4358-8cff-d502d020147f}; !- HVAC Component

OS:PortList,
  {1def579a-b95e-42de-95cd-62218463d2b9}, !- Handle
  {a975274c-aa8e-4d5c-a18f-90ad4cb670b4}, !- Name
  {71212716-256b-4358-8cff-d502d020147f}; !- HVAC Component

OS:PortList,
  {05ad8205-b1e2-4df0-9b9b-40fc791d3635}, !- Handle
  {7f5a96c2-41ec-413b-8140-e889189d7aef}, !- Name
  {71212716-256b-4358-8cff-d502d020147f}; !- HVAC Component

OS:Sizing:Zone,
  {0a7c6b6c-37dc-415b-9023-75d7d63ff194}, !- Handle
  {71212716-256b-4358-8cff-d502d020147f}, !- Zone or ZoneList Name
  SupplyAirTemperature,                   !- Zone Cooling Design Supply Air Temperature Input Method
  14,                                     !- Zone Cooling Design Supply Air Temperature {C}
  11.11,                                  !- Zone Cooling Design Supply Air Temperature Difference {deltaC}
  SupplyAirTemperature,                   !- Zone Heating Design Supply Air Temperature Input Method
  40,                                     !- Zone Heating Design Supply Air Temperature {C}
  11.11,                                  !- Zone Heating Design Supply Air Temperature Difference {deltaC}
  0.0085,                                 !- Zone Cooling Design Supply Air Humidity Ratio {kg-H2O/kg-air}
  0.008,                                  !- Zone Heating Design Supply Air Humidity Ratio {kg-H2O/kg-air}
  ,                                       !- Zone Heating Sizing Factor
  ,                                       !- Zone Cooling Sizing Factor
  DesignDay,                              !- Cooling Design Air Flow Method
  ,                                       !- Cooling Design Air Flow Rate {m3/s}
  ,                                       !- Cooling Minimum Air Flow per Zone Floor Area {m3/s-m2}
  ,                                       !- Cooling Minimum Air Flow {m3/s}
  ,                                       !- Cooling Minimum Air Flow Fraction
  DesignDay,                              !- Heating Design Air Flow Method
  ,                                       !- Heating Design Air Flow Rate {m3/s}
  ,                                       !- Heating Maximum Air Flow per Zone Floor Area {m3/s-m2}
  ,                                       !- Heating Maximum Air Flow {m3/s}
  ,                                       !- Heating Maximum Air Flow Fraction
  ,                                       !- Design Zone Air Distribution Effectiveness in Cooling Mode
  ,                                       !- Design Zone Air Distribution Effectiveness in Heating Mode
  No,                                     !- Account for Dedicated Outdoor Air System
  NeutralSupplyAir,                       !- Dedicated Outdoor Air System Control Strategy
  autosize,                               !- Dedicated Outdoor Air Low Setpoint Temperature for Design {C}
  autosize;                               !- Dedicated Outdoor Air High Setpoint Temperature for Design {C}

OS:ZoneHVAC:EquipmentList,
  {f38f6e52-910d-4e69-bad4-9e8a9ddad8ff}, !- Handle
  {14ea0790-ad2e-424c-beb4-72ec7ef8783e}, !- Name
  {71212716-256b-4358-8cff-d502d020147f}; !- Thermal Zone

OS:AdditionalProperties,
  {f149dd6a-d211-4617-a22f-fa81db6ae938}, !- Handle
  {71212716-256b-4358-8cff-d502d020147f}, !- Object Name
  CADObjectId,                            !- Feature Name 1
  String,                                 !- Feature Data Type 1
  1812;                                   !- Feature Value 1

OS:ThermalZone,
  {2df3fdf6-52a3-47c5-bafb-ba02a8683ac4}, !- Handle
  {1f496ac0-2097-4ac2-b288-fe9023c79ce1}, !- Name
  ,                                       !- Multiplier
  ,                                       !- Ceiling Height {m}
  25.8491608373169,                       !- Volume {m3}
  ,                                       !- Floor Area {m2}
  ,                                       !- Zone Inside Convection Algorithm
  ,                                       !- Zone Outside Convection Algorithm
  ,                                       !- Zone Conditioning Equipment List Name
  {75fe3e33-d1e2-4297-a539-5cc627bb21ca}, !- Zone Air Inlet Port List
  {48cd6e24-5e7b-464b-8db7-fbd6859b5dcf}, !- Zone Air Exhaust Port List
  {df50d46a-a3d5-4bac-9ae9-012da630e076}, !- Zone Air Node Name
  {27a388a4-954f-4dce-9f9e-37e14d6c13de}, !- Zone Return Air Port List
  ,                                       !- Primary Daylighting Control Name
  ,                                       !- Fraction of Zone Controlled by Primary Daylighting Control
  ,                                       !- Secondary Daylighting Control Name
  ,                                       !- Fraction of Zone Controlled by Secondary Daylighting Control
  ,                                       !- Illuminance Map Name
  ,                                       !- Group Rendering Name
  ,                                       !- Thermostat Name
  No;                                     !- Use Ideal Air Loads

OS:Node,
  {e1ad0c43-e889-4530-bcb9-169427d41681}, !- Handle
  {28a12ead-7e48-46b2-bcd6-f2a56a813082}, !- Name
  {df50d46a-a3d5-4bac-9ae9-012da630e076}, !- Inlet Port
  ;                                       !- Outlet Port

OS:Connection,
  {df50d46a-a3d5-4bac-9ae9-012da630e076}, !- Handle
  {8bd70168-34f1-4e2f-8844-d862feff22bb}, !- Name
  {2df3fdf6-52a3-47c5-bafb-ba02a8683ac4}, !- Source Object
  11,                                     !- Outlet Port
  {e1ad0c43-e889-4530-bcb9-169427d41681}, !- Target Object
  2;                                      !- Inlet Port

OS:PortList,
  {75fe3e33-d1e2-4297-a539-5cc627bb21ca}, !- Handle
  {8d5da043-b9cd-4455-89c9-5fc7c60d8e07}, !- Name
  {2df3fdf6-52a3-47c5-bafb-ba02a8683ac4}; !- HVAC Component

OS:PortList,
  {48cd6e24-5e7b-464b-8db7-fbd6859b5dcf}, !- Handle
  {7bfbd6bf-163c-4503-9600-3f2662e97a80}, !- Name
  {2df3fdf6-52a3-47c5-bafb-ba02a8683ac4}; !- HVAC Component

OS:PortList,
  {27a388a4-954f-4dce-9f9e-37e14d6c13de}, !- Handle
  {fd895b13-2a0b-4113-9e03-5bf8a86382eb}, !- Name
  {2df3fdf6-52a3-47c5-bafb-ba02a8683ac4}; !- HVAC Component

OS:Sizing:Zone,
  {685b85f1-6641-4a83-b31d-776ee7a5f242}, !- Handle
  {2df3fdf6-52a3-47c5-bafb-ba02a8683ac4}, !- Zone or ZoneList Name
  SupplyAirTemperature,                   !- Zone Cooling Design Supply Air Temperature Input Method
  14,                                     !- Zone Cooling Design Supply Air Temperature {C}
  11.11,                                  !- Zone Cooling Design Supply Air Temperature Difference {deltaC}
  SupplyAirTemperature,                   !- Zone Heating Design Supply Air Temperature Input Method
  40,                                     !- Zone Heating Design Supply Air Temperature {C}
  11.11,                                  !- Zone Heating Design Supply Air Temperature Difference {deltaC}
  0.0085,                                 !- Zone Cooling Design Supply Air Humidity Ratio {kg-H2O/kg-air}
  0.008,                                  !- Zone Heating Design Supply Air Humidity Ratio {kg-H2O/kg-air}
  ,                                       !- Zone Heating Sizing Factor
  ,                                       !- Zone Cooling Sizing Factor
  DesignDay,                              !- Cooling Design Air Flow Method
  ,                                       !- Cooling Design Air Flow Rate {m3/s}
  ,                                       !- Cooling Minimum Air Flow per Zone Floor Area {m3/s-m2}
  ,                                       !- Cooling Minimum Air Flow {m3/s}
  ,                                       !- Cooling Minimum Air Flow Fraction
  DesignDay,                              !- Heating Design Air Flow Method
  ,                                       !- Heating Design Air Flow Rate {m3/s}
  ,                                       !- Heating Maximum Air Flow per Zone Floor Area {m3/s-m2}
  ,                                       !- Heating Maximum Air Flow {m3/s}
  ,                                       !- Heating Maximum Air Flow Fraction
  ,                                       !- Design Zone Air Distribution Effectiveness in Cooling Mode
  ,                                       !- Design Zone Air Distribution Effectiveness in Heating Mode
  No,                                     !- Account for Dedicated Outdoor Air System
  NeutralSupplyAir,                       !- Dedicated Outdoor Air System Control Strategy
  autosize,                               !- Dedicated Outdoor Air Low Setpoint Temperature for Design {C}
  autosize;                               !- Dedicated Outdoor Air High Setpoint Temperature for Design {C}

OS:ZoneHVAC:EquipmentList,
  {a9de315f-e7df-40df-94df-7c92db7773a2}, !- Handle
  {3c357e5c-f4a9-48fc-9a4e-1dd0f5525ba1}, !- Name
  {2df3fdf6-52a3-47c5-bafb-ba02a8683ac4}; !- Thermal Zone

OS:AdditionalProperties,
  {ec281e1d-4459-4fa1-b33d-5466834b5bb1}, !- Handle
  {2df3fdf6-52a3-47c5-bafb-ba02a8683ac4}, !- Object Name
  CADObjectId,                            !- Feature Name 1
  String,                                 !- Feature Data Type 1
  1812;                                   !- Feature Value 1

OS:ThermalZone,
  {9239bdee-395e-47a3-aa7a-c1cf60941456}, !- Handle
  {fcbee30b-8538-4a16-b5d5-f48009ed44ba}, !- Name
  ,                                       !- Multiplier
  ,                                       !- Ceiling Height {m}
  23.2189958485735,                       !- Volume {m3}
  ,                                       !- Floor Area {m2}
  ,                                       !- Zone Inside Convection Algorithm
  ,                                       !- Zone Outside Convection Algorithm
  ,                                       !- Zone Conditioning Equipment List Name
  {caf29083-8a4e-45af-a8a9-dd5b70d856fc}, !- Zone Air Inlet Port List
  {b3a7a9a1-8f2a-488e-9d41-d3422fab1210}, !- Zone Air Exhaust Port List
  {f361ff95-476e-4e65-831a-a1ad60732e61}, !- Zone Air Node Name
  {51e0bd46-34b2-405e-8fd8-abeca045e59b}, !- Zone Return Air Port List
  ,                                       !- Primary Daylighting Control Name
  ,                                       !- Fraction of Zone Controlled by Primary Daylighting Control
  ,                                       !- Secondary Daylighting Control Name
  ,                                       !- Fraction of Zone Controlled by Secondary Daylighting Control
  ,                                       !- Illuminance Map Name
  ,                                       !- Group Rendering Name
  ,                                       !- Thermostat Name
  No;                                     !- Use Ideal Air Loads

OS:Node,
  {a56d8259-6b9e-4357-98dc-4b5402eef860}, !- Handle
  {98b80e91-5164-462b-9376-c70afb123c27}, !- Name
  {f361ff95-476e-4e65-831a-a1ad60732e61}, !- Inlet Port
  ;                                       !- Outlet Port

OS:Connection,
  {f361ff95-476e-4e65-831a-a1ad60732e61}, !- Handle
  {8379e670-864a-4c80-9e89-437cadcbe3b1}, !- Name
  {9239bdee-395e-47a3-aa7a-c1cf60941456}, !- Source Object
  11,                                     !- Outlet Port
  {a56d8259-6b9e-4357-98dc-4b5402eef860}, !- Target Object
  2;                                      !- Inlet Port

OS:PortList,
  {caf29083-8a4e-45af-a8a9-dd5b70d856fc}, !- Handle
  {3714b7e4-4845-4504-a158-e926ba565402}, !- Name
  {9239bdee-395e-47a3-aa7a-c1cf60941456}; !- HVAC Component

OS:PortList,
  {b3a7a9a1-8f2a-488e-9d41-d3422fab1210}, !- Handle
  {1e6bec23-ab46-4699-9609-e6a9e83388c2}, !- Name
  {9239bdee-395e-47a3-aa7a-c1cf60941456}; !- HVAC Component

OS:PortList,
  {51e0bd46-34b2-405e-8fd8-abeca045e59b}, !- Handle
  {f1d5daaf-6294-4e00-a027-02d21aac6fe4}, !- Name
  {9239bdee-395e-47a3-aa7a-c1cf60941456}; !- HVAC Component

OS:Sizing:Zone,
  {81cae0ee-10af-492e-9729-abfecbf40853}, !- Handle
  {9239bdee-395e-47a3-aa7a-c1cf60941456}, !- Zone or ZoneList Name
  SupplyAirTemperature,                   !- Zone Cooling Design Supply Air Temperature Input Method
  14,                                     !- Zone Cooling Design Supply Air Temperature {C}
  11.11,                                  !- Zone Cooling Design Supply Air Temperature Difference {deltaC}
  SupplyAirTemperature,                   !- Zone Heating Design Supply Air Temperature Input Method
  40,                                     !- Zone Heating Design Supply Air Temperature {C}
  11.11,                                  !- Zone Heating Design Supply Air Temperature Difference {deltaC}
  0.0085,                                 !- Zone Cooling Design Supply Air Humidity Ratio {kg-H2O/kg-air}
  0.008,                                  !- Zone Heating Design Supply Air Humidity Ratio {kg-H2O/kg-air}
  ,                                       !- Zone Heating Sizing Factor
  ,                                       !- Zone Cooling Sizing Factor
  DesignDay,                              !- Cooling Design Air Flow Method
  ,                                       !- Cooling Design Air Flow Rate {m3/s}
  ,                                       !- Cooling Minimum Air Flow per Zone Floor Area {m3/s-m2}
  ,                                       !- Cooling Minimum Air Flow {m3/s}
  ,                                       !- Cooling Minimum Air Flow Fraction
  DesignDay,                              !- Heating Design Air Flow Method
  ,                                       !- Heating Design Air Flow Rate {m3/s}
  ,                                       !- Heating Maximum Air Flow per Zone Floor Area {m3/s-m2}
  ,                                       !- Heating Maximum Air Flow {m3/s}
  ,                                       !- Heating Maximum Air Flow Fraction
  ,                                       !- Design Zone Air Distribution Effectiveness in Cooling Mode
  ,                                       !- Design Zone Air Distribution Effectiveness in Heating Mode
  No,                                     !- Account for Dedicated Outdoor Air System
  NeutralSupplyAir,                       !- Dedicated Outdoor Air System Control Strategy
  autosize,                               !- Dedicated Outdoor Air Low Setpoint Temperature for Design {C}
  autosize;                               !- Dedicated Outdoor Air High Setpoint Temperature for Design {C}

OS:ZoneHVAC:EquipmentList,
  {72d9db53-0c61-4fa7-b557-4a297fb6fd88}, !- Handle
  {1237dcaf-54bc-4bc2-897b-51fe1f35be93}, !- Name
  {9239bdee-395e-47a3-aa7a-c1cf60941456}; !- Thermal Zone

OS:AdditionalProperties,
  {996ca7e7-ee3d-4442-b767-fe4fd882cedb}, !- Handle
  {9239bdee-395e-47a3-aa7a-c1cf60941456}, !- Object Name
  CADObjectId,                            !- Feature Name 1
  String,                                 !- Feature Data Type 1
  1812;                                   !- Feature Value 1

OS:ThermalZone,
  {5af56bcc-6319-4585-be0e-0bad4ae82144}, !- Handle
  {1f9b6c8f-a49d-4d22-a078-ea7c9a556ef7}, !- Name
  ,                                       !- Multiplier
  ,                                       !- Ceiling Height {m}
  23.2189958485735,                       !- Volume {m3}
  ,                                       !- Floor Area {m2}
  ,                                       !- Zone Inside Convection Algorithm
  ,                                       !- Zone Outside Convection Algorithm
  ,                                       !- Zone Conditioning Equipment List Name
  {9572f337-d9b6-408d-805e-4eeb39824173}, !- Zone Air Inlet Port List
  {69cd9c9a-f43d-4800-bc41-a5250465662c}, !- Zone Air Exhaust Port List
  {7bbe59b3-0808-4484-8533-e6fd56144368}, !- Zone Air Node Name
  {5a435b19-0525-498e-b7d0-98a37632fc41}, !- Zone Return Air Port List
  ,                                       !- Primary Daylighting Control Name
  ,                                       !- Fraction of Zone Controlled by Primary Daylighting Control
  ,                                       !- Secondary Daylighting Control Name
  ,                                       !- Fraction of Zone Controlled by Secondary Daylighting Control
  ,                                       !- Illuminance Map Name
  ,                                       !- Group Rendering Name
  ,                                       !- Thermostat Name
  No;                                     !- Use Ideal Air Loads

OS:Node,
  {c23e65db-c6c4-48c3-b95e-9bbb425ac8bc}, !- Handle
  {6822e777-ad2e-4634-b5f7-a7b3daca7ed8}, !- Name
  {7bbe59b3-0808-4484-8533-e6fd56144368}, !- Inlet Port
  ;                                       !- Outlet Port

OS:Connection,
  {7bbe59b3-0808-4484-8533-e6fd56144368}, !- Handle
  {b7d6c30f-e891-4820-a6e5-146e28ca1e70}, !- Name
  {5af56bcc-6319-4585-be0e-0bad4ae82144}, !- Source Object
  11,                                     !- Outlet Port
  {c23e65db-c6c4-48c3-b95e-9bbb425ac8bc}, !- Target Object
  2;                                      !- Inlet Port

OS:PortList,
  {9572f337-d9b6-408d-805e-4eeb39824173}, !- Handle
  {b416e7ea-f146-4d67-8c6a-cf106561bc66}, !- Name
  {5af56bcc-6319-4585-be0e-0bad4ae82144}; !- HVAC Component

OS:PortList,
  {69cd9c9a-f43d-4800-bc41-a5250465662c}, !- Handle
  {d0999995-e89d-47de-a3a6-06fcdfe068aa}, !- Name
  {5af56bcc-6319-4585-be0e-0bad4ae82144}; !- HVAC Component

OS:PortList,
  {5a435b19-0525-498e-b7d0-98a37632fc41}, !- Handle
  {bcbd4d64-e998-4486-9c8c-6c85ef94192d}, !- Name
  {5af56bcc-6319-4585-be0e-0bad4ae82144}; !- HVAC Component

OS:Sizing:Zone,
  {5722a5f9-81d6-41b7-93b2-71774b2dfc68}, !- Handle
  {5af56bcc-6319-4585-be0e-0bad4ae82144}, !- Zone or ZoneList Name
  SupplyAirTemperature,                   !- Zone Cooling Design Supply Air Temperature Input Method
  14,                                     !- Zone Cooling Design Supply Air Temperature {C}
  11.11,                                  !- Zone Cooling Design Supply Air Temperature Difference {deltaC}
  SupplyAirTemperature,                   !- Zone Heating Design Supply Air Temperature Input Method
  40,                                     !- Zone Heating Design Supply Air Temperature {C}
  11.11,                                  !- Zone Heating Design Supply Air Temperature Difference {deltaC}
  0.0085,                                 !- Zone Cooling Design Supply Air Humidity Ratio {kg-H2O/kg-air}
  0.008,                                  !- Zone Heating Design Supply Air Humidity Ratio {kg-H2O/kg-air}
  ,                                       !- Zone Heating Sizing Factor
  ,                                       !- Zone Cooling Sizing Factor
  DesignDay,                              !- Cooling Design Air Flow Method
  ,                                       !- Cooling Design Air Flow Rate {m3/s}
  ,                                       !- Cooling Minimum Air Flow per Zone Floor Area {m3/s-m2}
  ,                                       !- Cooling Minimum Air Flow {m3/s}
  ,                                       !- Cooling Minimum Air Flow Fraction
  DesignDay,                              !- Heating Design Air Flow Method
  ,                                       !- Heating Design Air Flow Rate {m3/s}
  ,                                       !- Heating Maximum Air Flow per Zone Floor Area {m3/s-m2}
  ,                                       !- Heating Maximum Air Flow {m3/s}
  ,                                       !- Heating Maximum Air Flow Fraction
  ,                                       !- Design Zone Air Distribution Effectiveness in Cooling Mode
  ,                                       !- Design Zone Air Distribution Effectiveness in Heating Mode
  No,                                     !- Account for Dedicated Outdoor Air System
  NeutralSupplyAir,                       !- Dedicated Outdoor Air System Control Strategy
  autosize,                               !- Dedicated Outdoor Air Low Setpoint Temperature for Design {C}
  autosize;                               !- Dedicated Outdoor Air High Setpoint Temperature for Design {C}

OS:ZoneHVAC:EquipmentList,
  {0284b07e-343a-4e7e-8155-28b9ce2658ab}, !- Handle
  {159a7567-ff10-4257-9d6d-e80dd6a8adc2}, !- Name
  {5af56bcc-6319-4585-be0e-0bad4ae82144}; !- Thermal Zone

OS:AdditionalProperties,
  {ad1ad8ba-4fe7-45a1-a01c-aa369b58fed0}, !- Handle
  {5af56bcc-6319-4585-be0e-0bad4ae82144}, !- Object Name
  CADObjectId,                            !- Feature Name 1
  String,                                 !- Feature Data Type 1
  1812;                                   !- Feature Value 1

OS:ThermalZone,
  {5b4b4223-fdef-4697-97b0-b2cab5f6a22d}, !- Handle
  {2756dcad-3803-4fe9-b1af-9efafc9b80b9}, !- Name
  ,                                       !- Multiplier
  ,                                       !- Ceiling Height {m}
  22.3119732720158,                       !- Volume {m3}
  ,                                       !- Floor Area {m2}
  ,                                       !- Zone Inside Convection Algorithm
  ,                                       !- Zone Outside Convection Algorithm
  ,                                       !- Zone Conditioning Equipment List Name
  {4c72b52b-e099-4088-aac8-8a59bd877323}, !- Zone Air Inlet Port List
  {6f242a30-83f9-4020-811b-c547a67fa57b}, !- Zone Air Exhaust Port List
  {268fad9b-81e2-4227-8320-35fc1314646a}, !- Zone Air Node Name
  {49b161c6-9d4a-4d88-9dd9-c887e1b9f451}, !- Zone Return Air Port List
  ,                                       !- Primary Daylighting Control Name
  ,                                       !- Fraction of Zone Controlled by Primary Daylighting Control
  ,                                       !- Secondary Daylighting Control Name
  ,                                       !- Fraction of Zone Controlled by Secondary Daylighting Control
  ,                                       !- Illuminance Map Name
  ,                                       !- Group Rendering Name
  ,                                       !- Thermostat Name
  No;                                     !- Use Ideal Air Loads

OS:Node,
  {cff2b8c8-324b-48ef-8f33-7b821ff65e7c}, !- Handle
  {7829ea49-a5fa-4c26-a407-2a824bdc29cb}, !- Name
  {268fad9b-81e2-4227-8320-35fc1314646a}, !- Inlet Port
  ;                                       !- Outlet Port

OS:Connection,
  {268fad9b-81e2-4227-8320-35fc1314646a}, !- Handle
  {3bc16693-1b7d-48d1-8c4f-c85d20b0d861}, !- Name
  {5b4b4223-fdef-4697-97b0-b2cab5f6a22d}, !- Source Object
  11,                                     !- Outlet Port
  {cff2b8c8-324b-48ef-8f33-7b821ff65e7c}, !- Target Object
  2;                                      !- Inlet Port

OS:PortList,
  {4c72b52b-e099-4088-aac8-8a59bd877323}, !- Handle
  {40f08633-5b8a-48ce-9e32-0fbee9307cb4}, !- Name
  {5b4b4223-fdef-4697-97b0-b2cab5f6a22d}; !- HVAC Component

OS:PortList,
  {6f242a30-83f9-4020-811b-c547a67fa57b}, !- Handle
  {3b521201-9584-48a9-bdfa-6868075c4430}, !- Name
  {5b4b4223-fdef-4697-97b0-b2cab5f6a22d}; !- HVAC Component

OS:PortList,
  {49b161c6-9d4a-4d88-9dd9-c887e1b9f451}, !- Handle
  {e30bdf4f-fb8e-4d70-946c-3bedf85d32d8}, !- Name
  {5b4b4223-fdef-4697-97b0-b2cab5f6a22d}; !- HVAC Component

OS:Sizing:Zone,
  {5a43cabb-5f65-40ab-b3e9-807c8a9cab91}, !- Handle
  {5b4b4223-fdef-4697-97b0-b2cab5f6a22d}, !- Zone or ZoneList Name
  SupplyAirTemperature,                   !- Zone Cooling Design Supply Air Temperature Input Method
  14,                                     !- Zone Cooling Design Supply Air Temperature {C}
  11.11,                                  !- Zone Cooling Design Supply Air Temperature Difference {deltaC}
  SupplyAirTemperature,                   !- Zone Heating Design Supply Air Temperature Input Method
  40,                                     !- Zone Heating Design Supply Air Temperature {C}
  11.11,                                  !- Zone Heating Design Supply Air Temperature Difference {deltaC}
  0.0085,                                 !- Zone Cooling Design Supply Air Humidity Ratio {kg-H2O/kg-air}
  0.008,                                  !- Zone Heating Design Supply Air Humidity Ratio {kg-H2O/kg-air}
  ,                                       !- Zone Heating Sizing Factor
  ,                                       !- Zone Cooling Sizing Factor
  DesignDay,                              !- Cooling Design Air Flow Method
  ,                                       !- Cooling Design Air Flow Rate {m3/s}
  ,                                       !- Cooling Minimum Air Flow per Zone Floor Area {m3/s-m2}
  ,                                       !- Cooling Minimum Air Flow {m3/s}
  ,                                       !- Cooling Minimum Air Flow Fraction
  DesignDay,                              !- Heating Design Air Flow Method
  ,                                       !- Heating Design Air Flow Rate {m3/s}
  ,                                       !- Heating Maximum Air Flow per Zone Floor Area {m3/s-m2}
  ,                                       !- Heating Maximum Air Flow {m3/s}
  ,                                       !- Heating Maximum Air Flow Fraction
  ,                                       !- Design Zone Air Distribution Effectiveness in Cooling Mode
  ,                                       !- Design Zone Air Distribution Effectiveness in Heating Mode
  No,                                     !- Account for Dedicated Outdoor Air System
  NeutralSupplyAir,                       !- Dedicated Outdoor Air System Control Strategy
  autosize,                               !- Dedicated Outdoor Air Low Setpoint Temperature for Design {C}
  autosize;                               !- Dedicated Outdoor Air High Setpoint Temperature for Design {C}

OS:ZoneHVAC:EquipmentList,
  {21989263-3b94-4ad5-b335-6c289c0cd69f}, !- Handle
  {8db92793-9dfd-41e5-bc6e-eb222f88d407}, !- Name
  {5b4b4223-fdef-4697-97b0-b2cab5f6a22d}; !- Thermal Zone

OS:AdditionalProperties,
  {0f6bf2c6-f132-48b0-8b7c-8ee28f0289b2}, !- Handle
  {5b4b4223-fdef-4697-97b0-b2cab5f6a22d}, !- Object Name
  CADObjectId,                            !- Feature Name 1
  String,                                 !- Feature Data Type 1
  1812;                                   !- Feature Value 1

OS:ThermalZone,
  {e9a56532-13da-42ea-a816-37c4bb407948}, !- Handle
  {4631cf63-697a-4354-a630-a67f1b7a664d}, !- Name
  ,                                       !- Multiplier
  ,                                       !- Ceiling Height {m}
  22.3119732720158,                       !- Volume {m3}
  ,                                       !- Floor Area {m2}
  ,                                       !- Zone Inside Convection Algorithm
  ,                                       !- Zone Outside Convection Algorithm
  ,                                       !- Zone Conditioning Equipment List Name
  {00bcef7c-60fc-4310-998e-0089a128a07b}, !- Zone Air Inlet Port List
  {b19c07fe-4251-419a-94fe-a059aa3add50}, !- Zone Air Exhaust Port List
  {bcc0dd2b-1245-44b1-ae8a-f0a3fc46808f}, !- Zone Air Node Name
  {3f437ca8-3347-4884-8047-b18825a150db}, !- Zone Return Air Port List
  ,                                       !- Primary Daylighting Control Name
  ,                                       !- Fraction of Zone Controlled by Primary Daylighting Control